conf_0
  RxDock  10202421093D
librxdock.so/0.1.0
 74 80  0  0  0  0  0  0  0  0999 V2000
  -44.3181   17.6622   18.8291 C   0  0  0  0  0  0
  -43.0892   17.5535   17.9554 C   0  0  0  0  0  0
  -43.0811   18.1462   16.5853 C   0  0  0  0  0  0
  -41.5382   17.9168   15.8512 S   0  0  0  0  0  0
  -40.7832   17.0774   17.1669 C   0  0  0  0  0  0
  -41.7416   16.9345   18.2684 C   0  0  0  0  0  0
  -41.4006   16.2448   19.5559 C   0  0  0  0  0  0
  -40.3307   16.5017   20.1415 N   0  0  0  0  0  0
  -39.3255   17.4529   19.6348 C   0  0  0  0  0  0
  -38.8182   16.8459   18.3553 C   0  0  0  0  0  0
  -39.4887   16.6672   17.2322 N   0  0  0  0  0  0
  -38.7690   16.1012   16.2492 C   0  0  0  0  0  0
  -37.5544   15.9056   16.7882 N   0  0  0  0  0  0
  -37.5747   16.3795   18.1376 N   0  0  0  0  0  0
  -39.1660   15.7581   14.8315 C   0  0  0  0  0  0
  -38.1931   17.3018   20.6392 C   0  0  0  0  0  0
  -38.3962   17.4941   21.9798 C   0  0  0  0  0  0
  -38.5992   18.2536   22.9731 O   0  0  0  0  0  0
  -38.3916   16.1439   22.7022 N   0  0  0  0  0  0
  -38.5892   15.9829   24.0912 C   0  0  0  0  0  0
  -37.6233   16.5606   25.0634 C   0  0  0  0  0  0
  -37.4195   17.9124   25.0843 O   0  0  0  0  0  0
  -36.5012   18.1994   26.1125 C   0  0  0  0  0  0
  -36.1607   19.6720   26.1506 C   0  0  0  0  0  0
  -35.2893   20.0024   27.0888 O   0  0  0  0  0  0
  -35.5604   19.9537   28.4397 C   0  0  0  0  0  0
  -34.3065   20.2725   29.2117 C   0  0  0  0  0  0
  -34.2113   20.3293   30.5108 O   0  0  0  0  0  0
  -34.6058   19.3920   31.3900 C   0  0  0  0  0  0
  -36.0941   19.5484   31.6906 C   0  0  0  0  0  0
  -36.6417   20.6191   31.3906 O   0  0  0  0  0  0
  -36.7124   18.5166   32.2607 N   0  0  0  0  0  0
  -38.1434   18.5011   32.6599 C   0  0  0  0  0  0
  -38.0824   18.3942   34.2150 C   0  0  0  0  0  0
  -37.2836   17.6311   34.7367 O   0  0  0  0  0  0
  -38.9218   19.1638   34.9643 N   0  0  0  0  0  0
  -39.9594   20.1619   34.6104 C   0  0  0  0  0  0
  -40.0362   21.0714   35.8489 C   0  0  0  0  0  0
  -39.8027   20.1395   36.9891 C   0  0  0  0  0  0
  -38.8023   19.0620   36.4856 C   0  0  0  0  0  0
  -39.2127   17.8430   37.0538 C   0  0  0  0  0  0
  -40.0556   17.1542   36.5139 O   0  0  0  0  0  0
  -38.6117   17.4886   38.2342 N   0  0  0  0  0  0
  -38.9591   16.2813   38.9477 C   0  0  0  0  0  0
  -39.9563   16.5370   39.9592 C   0  0  0  0  0  0
  -40.6747   15.4885   40.5008 C   0  0  0  0  0  0
  -41.6206   15.6886   41.5072 C   0  0  0  0  0  0
  -41.8864   16.9663   42.0171 C   0  0  0  0  0  0
  -41.1655   18.0354   41.4761 C   0  0  0  0  0  0
  -40.2160   17.8326   40.4653 C   0  0  0  0  0  0
  -42.7866   17.1681   43.0029 C   0  0  0  0  0  0
  -42.9246   16.4415   44.1346 C   0  0  0  0  0  0
  -43.9013   16.8446   44.9622 N   0  0  0  0  0  0
  -44.6060   17.9248   44.5335 C   0  0  0  0  0  0
  -43.9779   18.3743   43.0679 S   0  0  0  0  0  0
  -42.0541   15.2313   44.5269 C   0  0  0  0  0  0
  -39.0091   22.0717   35.8599 O   0  0  0  0  0  0
  -38.9174   17.3443   31.9791 C   0  0  0  0  0  0
  -40.3876   17.3714   32.4675 C   0  0  0  0  0  0
  -38.2877   15.9656   32.2234 C   0  0  0  0  0  0
  -38.9312   17.5773   30.4585 C   0  0  0  0  0  0
  -42.4154   15.3136   20.1131 C   0  0  0  0  0  0
  -43.3925   14.7381   19.2786 C   0  0  0  0  0  0
  -44.3948   13.9307   19.7962 C   0  0  0  0  0  0
  -44.3988   13.7158   21.1792 C   0  0  0  0  0  0
  -43.4424   14.2842   22.0163 C   0  0  0  0  0  0
  -42.4577   15.0748   21.4936 C   0  0  0  0  0  0
  -45.6372   12.6589   21.9006 Cl  0  0  0  0  0  0
  -44.1523   18.8643   15.8081 C   0  0  0  0  0  0
  -38.2328   15.2855   22.1308 H   0  0  0  0  0  0
  -36.2254   17.5988   32.4831 H   0  0  0  0  0  0
  -37.8527   18.0640   38.7142 H   0  0  0  0  0  0
  -44.1649   16.4007   45.9023 H   0  0  0  0  0  0
  -38.1798   21.5561   35.6192 H   0  0  0  0  0  0
  1  2  1  0  0  0
  2  3  2  0  0  0
  3  4  1  0  0  0
  3 69  1  0  0  0
  4  5  1  0  0  0
  5  6  2  0  0  0
  5 11  1  0  0  0
  6  7  1  0  0  0
  6  2  1  0  0  0
  7  8  2  0  0  0
  7 62  1  0  0  0
  8  9  1  0  0  0
  9 10  1  0  0  0
  9 16  1  0  0  0
 10 11  1  0  0  0
 11 12  1  0  0  0
 12 13  2  0  0  0
 12 15  1  0  0  0
 13 14  1  0  0  0
 14 10  2  0  0  0
 16 17  1  0  0  0
 17 18  2  0  0  0
 17 19  1  0  0  0
 19 20  1  0  0  0
 19 70  1  0  0  0
 20 21  1  0  0  0
 21 22  1  0  0  0
 22 23  1  0  0  0
 23 24  1  0  0  0
 24 25  1  0  0  0
 25 26  1  0  0  0
 26 27  1  0  0  0
 27 28  1  0  0  0
 28 29  1  0  0  0
 29 30  1  0  0  0
 30 31  2  0  0  0
 30 32  1  0  0  0
 32 33  1  0  0  0
 32 71  1  0  0  0
 33 34  1  0  0  0
 33 58  1  0  0  0
 34 35  2  0  0  0
 34 36  1  0  0  0
 36 37  1  0  0  0
 37 38  1  0  0  0
 38 39  1  0  0  0
 38 57  1  0  0  0
 39 40  1  0  0  0
 40 41  1  0  0  0
 40 36  1  0  0  0
 41 42  2  0  0  0
 41 43  1  0  0  0
 43 44  1  0  0  0
 43 72  1  0  0  0
 44 45  1  0  0  0
 45 46  2  0  0  0
 46 47  1  0  0  0
 47 48  2  0  0  0
 48 49  1  0  0  0
 48 51  1  0  0  0
 49 50  2  0  0  0
 50 45  1  0  0  0
 51 52  2  0  0  0
 52 53  1  0  0  0
 52 56  1  0  0  0
 53 54  1  0  0  0
 53 73  1  0  0  0
 54 55  1  0  0  0
 55 51  1  0  0  0
 57 74  1  0  0  0
 58 59  1  0  0  0
 58 60  1  0  0  0
 58 61  1  0  0  0
 62 63  2  0  0  0
 63 64  1  0  0  0
 64 65  2  0  0  0
 65 66  1  0  0  0
 65 68  1  0  0  0
 66 67  2  0  0  0
 67 62  1  0  0  0
M  END
>  <CHROM.0>
9.61175700,-1.72897027,-137.42645386,130.53224880,-112.15118604,169.99781523

>  <CHROM.1>
22.32700875,-56.45204256,-73.33749375,-63.38952211,60.65710483,178.14493775
176.75686953,-179.31179211,-68.14683471,174.75109404,179.15811314,51.57539935
-84.15276433,-16.76311315,-114.40455934,-42.61021348,178.65847960,-45.90696375
-27.67862758,-94.34535234,162.83835480,44.77004201,-39.99659385,17.41844781
28.76673683,1.57589581,-0.45137463,-1.62834664

>  <Name>
conf_0

>  <Rbt.Current_Directory>
/home/paula/Documents/testing/tutorial/protac_scoring/protac_mz1/protein_pose_15092

>  <Rbt.Executable>
rbdock/0.1.0

>  <Rbt.Library>
librxdock.so/0.1.0

>  <Rbt.Parameter_File>
/home/paula/Apps/install/miniconda3/envs/p4ward/share/rxdock-2013.1.1_148c5bd1-1/data/scripts/score.prm

>  <Rbt.Receptor>
cavity.prm

>  <SCORE>
6.38736

>  <SCORE.INTER>
0.0345243

>  <SCORE.INTER.CONST>
1

>  <SCORE.INTER.POLAR>
-3.12888

>  <SCORE.INTER.REPUL>
0.639631

>  <SCORE.INTER.ROT>
21

>  <SCORE.INTER.VDW>
-18.9255

>  <SCORE.INTER.norm>
0.000500352

>  <SCORE.INTRA>
0

>  <SCORE.INTRA.DIHEDRAL>
0

>  <SCORE.INTRA.DIHEDRAL.0>
25.2708

>  <SCORE.INTRA.POLAR>
0

>  <SCORE.INTRA.POLAR.0>
0

>  <SCORE.INTRA.REPUL>
0

>  <SCORE.INTRA.REPUL.0>
0.0329665

>  <SCORE.INTRA.VDW>
0

>  <SCORE.INTRA.VDW.0>
-3.81087

>  <SCORE.INTRA.norm>
0

>  <SCORE.RESTR>
0

>  <SCORE.RESTR.CAVITY>
0

>  <SCORE.RESTR.norm>
0

>  <SCORE.SYSTEM>
6.35284

>  <SCORE.SYSTEM.CONST>
0

>  <SCORE.SYSTEM.DIHEDRAL>
15.6868

>  <SCORE.SYSTEM.POLAR>
-4.45095

>  <SCORE.SYSTEM.VDW>
13.6426

>  <SCORE.SYSTEM.norm>
0.0920701

>  <SCORE.heavy>
69

>  <SCORE.norm>
0.0925705

$$$$
conf_3
  RxDock  10202421093D
librxdock.so/0.1.0
 74 80  0  0  0  0  0  0  0  0999 V2000
  -44.3144   17.6749   18.8302 C   0  0  0  0  0  0
  -43.0876   17.5626   17.9566 C   0  0  0  0  0  0
  -43.0760   18.1554   16.5862 C   0  0  0  0  0  0
  -41.5371   17.9234   15.8524 S   0  0  0  0  0  0
  -40.7863   17.0821   17.1671 C   0  0  0  0  0  0
  -41.7425   16.9400   18.2694 C   0  0  0  0  0  0
  -41.4031   16.2451   19.5561 C   0  0  0  0  0  0
  -40.3378   16.4999   20.1416 N   0  0  0  0  0  0
  -39.3330   17.4582   19.6354 C   0  0  0  0  0  0
  -38.8243   16.8477   18.3520 C   0  0  0  0  0  0
  -39.4919   16.6685   17.2315 N   0  0  0  0  0  0
  -38.7734   16.1002   16.2483 C   0  0  0  0  0  0
  -37.5590   15.9030   16.7854 N   0  0  0  0  0  0
  -37.5793   16.3793   18.1356 N   0  0  0  0  0  0
  -39.1716   15.7558   14.8312 C   0  0  0  0  0  0
  -38.2142   17.2920   20.6272 C   0  0  0  0  0  0
  -38.3244   17.4288   21.9732 C   0  0  0  0  0  0
  -38.5188   18.1267   22.9934 O   0  0  0  0  0  0
  -38.0885   16.0595   22.6077 N   0  0  0  0  0  0
  -37.9783   15.8250   24.0277 C   0  0  0  0  0  0
  -36.6325   16.4325   24.4655 C   0  0  0  0  0  0
  -36.2913   16.2658   25.7793 O   0  0  0  0  0  0
  -34.9622   16.6873   25.9568 C   0  0  0  0  0  0
  -34.3209   16.4323   27.2364 C   0  0  0  0  0  0
  -34.8140   16.9594   28.3874 O   0  0  0  0  0  0
  -33.9687   16.4559   29.4223 C   0  0  0  0  0  0
  -34.4632   17.0880   30.7567 C   0  0  0  0  0  0
  -34.3369   18.3779   30.6359 O   0  0  0  0  0  0
  -34.6132   19.4209   31.3792 C   0  0  0  0  0  0
  -36.1066   19.5617   31.6929 C   0  0  0  0  0  0
  -36.6507   20.6422   31.3990 O   0  0  0  0  0  0
  -36.7201   18.5325   32.2617 N   0  0  0  0  0  0
  -38.1562   18.5136   32.6592 C   0  0  0  0  0  0
  -38.0865   18.4016   34.2153 C   0  0  0  0  0  0
  -37.2844   17.6414   34.7351 O   0  0  0  0  0  0
  -38.9274   19.1691   34.9640 N   0  0  0  0  0  0
  -39.9684   20.1635   34.6102 C   0  0  0  0  0  0
  -40.0450   21.0743   35.8492 C   0  0  0  0  0  0
  -39.8095   20.1411   36.9893 C   0  0  0  0  0  0
  -38.8075   19.0670   36.4856 C   0  0  0  0  0  0
  -39.2131   17.8460   37.0537 C   0  0  0  0  0  0
  -40.0530   17.1536   36.5141 O   0  0  0  0  0  0
  -38.6110   17.4931   38.2341 N   0  0  0  0  0  0
  -38.9548   16.2853   38.9477 C   0  0  0  0  0  0
  -39.9525   16.5380   39.9590 C   0  0  0  0  0  0
  -40.6666   15.4865   40.5013 C   0  0  0  0  0  0
  -41.6113   15.6875   41.5081 C   0  0  0  0  0  0
  -41.8826   16.9596   42.0174 C   0  0  0  0  0  0
  -41.1661   18.0329   41.4760 C   0  0  0  0  0  0
  -40.2170   17.8322   40.4650 C   0  0  0  0  0  0
  -42.7836   17.1612   43.0033 C   0  0  0  0  0  0
  -42.9233   16.4369   44.1340 C   0  0  0  0  0  0
  -43.8970   16.8349   44.9635 N   0  0  0  0  0  0
  -44.6045   17.9129   44.5344 C   0  0  0  0  0  0
  -43.9778   18.3677   43.0688 S   0  0  0  0  0  0
  -42.0509   15.2228   44.5246 C   0  0  0  0  0  0
  -39.0215   22.0754   35.8595 O   0  0  0  0  0  0
  -38.9176   17.3492   31.9791 C   0  0  0  0  0  0
  -40.3891   17.3712   32.4676 C   0  0  0  0  0  0
  -38.2850   15.9729   32.2227 C   0  0  0  0  0  0
  -38.9317   17.5804   30.4580 C   0  0  0  0  0  0
  -42.4192   15.3168   20.1159 C   0  0  0  0  0  0
  -43.3955   14.7438   19.2781 C   0  0  0  0  0  0
  -44.4004   13.9376   19.7969 C   0  0  0  0  0  0
  -44.4057   13.7237   21.1787 C   0  0  0  0  0  0
  -43.4465   14.2921   22.0176 C   0  0  0  0  0  0
  -42.4647   15.0783   21.4921 C   0  0  0  0  0  0
  -45.6463   12.6699   21.9009 Cl  0  0  0  0  0  0
  -44.1483   18.8740   15.8088 C   0  0  0  0  0  0
  -38.0053   15.2287   21.9844 H   0  0  0  0  0  0
  -36.2697   17.6241   32.5417 H   0  0  0  0  0  0
  -37.8540   18.0722   38.7109 H   0  0  0  0  0  0
  -44.1578   16.3922   45.9052 H   0  0  0  0  0  0
  -38.1850   21.5516   35.9921 H   0  0  0  0  0  0
  1  2  1  0  0  0
  2  3  2  0  0  0
  3  4  1  0  0  0
  3 69  1  0  0  0
  4  5  1  0  0  0
  5  6  2  0  0  0
  5 11  1  0  0  0
  6  7  1  0  0  0
  6  2  1  0  0  0
  7  8  2  0  0  0
  7 62  1  0  0  0
  8  9  1  0  0  0
  9 10  1  0  0  0
  9 16  1  0  0  0
 10 11  1  0  0  0
 11 12  1  0  0  0
 12 13  2  0  0  0
 12 15  1  0  0  0
 13 14  1  0  0  0
 14 10  2  0  0  0
 16 17  1  0  0  0
 17 18  2  0  0  0
 17 19  1  0  0  0
 19 20  1  0  0  0
 19 70  1  0  0  0
 20 21  1  0  0  0
 21 22  1  0  0  0
 22 23  1  0  0  0
 23 24  1  0  0  0
 24 25  1  0  0  0
 25 26  1  0  0  0
 26 27  1  0  0  0
 27 28  1  0  0  0
 28 29  1  0  0  0
 29 30  1  0  0  0
 30 31  2  0  0  0
 30 32  1  0  0  0
 32 33  1  0  0  0
 32 71  1  0  0  0
 33 34  1  0  0  0
 33 58  1  0  0  0
 34 35  2  0  0  0
 34 36  1  0  0  0
 36 37  1  0  0  0
 37 38  1  0  0  0
 38 39  1  0  0  0
 38 57  1  0  0  0
 39 40  1  0  0  0
 40 41  1  0  0  0
 40 36  1  0  0  0
 41 42  2  0  0  0
 41 43  1  0  0  0
 43 44  1  0  0  0
 43 72  1  0  0  0
 44 45  1  0  0  0
 45 46  2  0  0  0
 46 47  1  0  0  0
 47 48  2  0  0  0
 48 49  1  0  0  0
 48 51  1  0  0  0
 49 50  2  0  0  0
 50 45  1  0  0  0
 51 52  2  0  0  0
 52 53  1  0  0  0
 52 56  1  0  0  0
 53 54  1  0  0  0
 53 73  1  0  0  0
 54 55  1  0  0  0
 55 51  1  0  0  0
 57 74  1  0  0  0
 58 59  1  0  0  0
 58 60  1  0  0  0
 58 61  1  0  0  0
 62 63  2  0  0  0
 63 64  1  0  0  0
 64 65  2  0  0  0
 65 66  1  0  0  0
 65 68  1  0  0  0
 66 67  2  0  0  0
 67 62  1  0  0  0
M  END
>  <CHROM.0>
9.61175700,-1.72897027,-137.42645386,130.53224880,-112.15118604,169.99781523

>  <CHROM.1>
22.60418542,-55.47488752,-67.32521377,-70.77842237,-176.98964995,170.87016313
-171.69318787,-60.90271231,177.76536393,177.57620405,-60.99306870,177.52201350
-61.61331432,-124.99502186,-114.71451412,-42.52088314,178.51737884,-68.05827800
-27.66690648,-94.32802810,162.89827135,44.61397373,-39.87917630,17.14790053
28.83859537,1.57545234,-0.25658058,-1.63248375

>  <Name>
conf_3

>  <Rbt.Current_Directory>
/home/paula/Documents/testing/tutorial/protac_scoring/protac_mz1/protein_pose_15092

>  <Rbt.Executable>
rbdock/0.1.0

>  <Rbt.Library>
librxdock.so/0.1.0

>  <Rbt.Parameter_File>
/home/paula/Apps/install/miniconda3/envs/p4ward/share/rxdock-2013.1.1_148c5bd1-1/data/scripts/score.prm

>  <Rbt.Receptor>
cavity.prm

>  <SCORE>
-29.3775

>  <SCORE.INTER>
-35.7304

>  <SCORE.INTER.CONST>
1

>  <SCORE.INTER.POLAR>
-2.79045

>  <SCORE.INTER.REPUL>
0.311936

>  <SCORE.INTER.ROT>
21

>  <SCORE.INTER.VDW>
-54.2025

>  <SCORE.INTER.norm>
-0.517831

>  <SCORE.INTRA>
0

>  <SCORE.INTRA.DIHEDRAL>
0

>  <SCORE.INTRA.DIHEDRAL.0>
22.3503

>  <SCORE.INTRA.POLAR>
0

>  <SCORE.INTRA.POLAR.0>
0

>  <SCORE.INTRA.REPUL>
0

>  <SCORE.INTRA.REPUL.0>
0

>  <SCORE.INTRA.VDW>
0

>  <SCORE.INTRA.VDW.0>
-5.22142

>  <SCORE.INTRA.norm>
0

>  <SCORE.RESTR>
0

>  <SCORE.RESTR.CAVITY>
0

>  <SCORE.RESTR.norm>
0

>  <SCORE.SYSTEM>
6.35284

>  <SCORE.SYSTEM.CONST>
0

>  <SCORE.SYSTEM.DIHEDRAL>
15.6868

>  <SCORE.SYSTEM.POLAR>
-4.45095

>  <SCORE.SYSTEM.VDW>
13.6426

>  <SCORE.SYSTEM.norm>
0.0920701

>  <SCORE.heavy>
69

>  <SCORE.norm>
-0.425761

$$$$
conf_4
  RxDock  10202421093D
librxdock.so/0.1.0
 74 80  0  0  0  0  0  0  0  0999 V2000
  -44.3128   17.6793   18.8279 C   0  0  0  0  0  0
  -43.0849   17.5614   17.9544 C   0  0  0  0  0  0
  -43.0742   18.1543   16.5818 C   0  0  0  0  0  0
  -41.5319   17.9124   15.8505 S   0  0  0  0  0  0
  -40.7799   17.0671   17.1671 C   0  0  0  0  0  0
  -41.7379   16.9316   18.2687 C   0  0  0  0  0  0
  -41.4057   16.2458   19.5564 C   0  0  0  0  0  0
  -40.3201   16.4786   20.1504 N   0  0  0  0  0  0
  -39.3346   17.3784   19.6317 C   0  0  0  0  0  0
  -38.8010   16.7928   18.3621 C   0  0  0  0  0  0
  -39.4851   16.6401   17.2328 N   0  0  0  0  0  0
  -38.7678   16.0868   16.2504 C   0  0  0  0  0  0
  -37.5519   15.8753   16.7903 N   0  0  0  0  0  0
  -37.5730   16.3277   18.1424 N   0  0  0  0  0  0
  -39.1639   15.7551   14.8302 C   0  0  0  0  0  0
  -38.2225   17.5091   20.6284 C   0  0  0  0  0  0
  -38.6372   18.0514   21.9149 C   0  0  0  0  0  0
  -38.2742   17.5756   23.0390 O   0  0  0  0  0  0
  -39.4706   19.1736   22.0325 N   0  0  0  0  0  0
  -39.8375   19.7886   23.3245 C   0  0  0  0  0  0
  -38.5375   20.3159   23.9408 C   0  0  0  0  0  0
  -38.6217   20.9443   25.0887 O   0  0  0  0  0  0
  -38.9667   20.6119   26.2881 C   0  0  0  0  0  0
  -38.2017   19.7362   27.2072 C   0  0  0  0  0  0
  -36.9232   20.1884   27.5499 O   0  0  0  0  0  0
  -36.4067   19.4028   28.5996 C   0  0  0  0  0  0
  -35.0399   19.8387   29.0431 C   0  0  0  0  0  0
  -34.4493   19.2068   30.0531 O   0  0  0  0  0  0
  -34.6312   19.4550   31.3737 C   0  0  0  0  0  0
  -36.1026   19.5605   31.6935 C   0  0  0  0  0  0
  -36.6605   20.6470   31.3979 O   0  0  0  0  0  0
  -36.7162   18.5233   32.2589 N   0  0  0  0  0  0
  -38.1469   18.5032   32.6595 C   0  0  0  0  0  0
  -38.0835   18.3986   34.2155 C   0  0  0  0  0  0
  -37.2806   17.6390   34.7362 O   0  0  0  0  0  0
  -38.9250   19.1663   34.9639 N   0  0  0  0  0  0
  -39.9684   20.1611   34.6099 C   0  0  0  0  0  0
  -40.0442   21.0714   35.8485 C   0  0  0  0  0  0
  -39.8094   20.1397   36.9888 C   0  0  0  0  0  0
  -38.8050   19.0667   36.4850 C   0  0  0  0  0  0
  -39.2114   17.8458   37.0540 C   0  0  0  0  0  0
  -40.0521   17.1537   36.5142 O   0  0  0  0  0  0
  -38.6093   17.4933   38.2344 N   0  0  0  0  0  0
  -38.9536   16.2847   38.9480 C   0  0  0  0  0  0
  -39.9517   16.5380   39.9589 C   0  0  0  0  0  0
  -40.6672   15.4871   40.5014 C   0  0  0  0  0  0
  -41.6127   15.6889   41.5082 C   0  0  0  0  0  0
  -41.8835   16.9569   42.0167 C   0  0  0  0  0  0
  -41.1658   18.0334   41.4758 C   0  0  0  0  0  0
  -40.2161   17.8327   40.4650 C   0  0  0  0  0  0
  -42.7832   17.1576   43.0043 C   0  0  0  0  0  0
  -42.9196   16.4333   44.1360 C   0  0  0  0  0  0
  -43.8996   16.8401   44.9633 N   0  0  0  0  0  0
  -44.6069   17.9113   44.5331 C   0  0  0  0  0  0
  -43.9768   18.3669   43.0690 S   0  0  0  0  0  0
  -42.0498   15.2279   44.5249 C   0  0  0  0  0  0
  -39.0235   22.0754   35.8591 O   0  0  0  0  0  0
  -38.9163   17.3468   31.9800 C   0  0  0  0  0  0
  -40.3845   17.3662   32.4678 C   0  0  0  0  0  0
  -38.2832   15.9699   32.2234 C   0  0  0  0  0  0
  -38.9396   17.5672   30.4600 C   0  0  0  0  0  0
  -42.4219   15.3224   20.1148 C   0  0  0  0  0  0
  -43.4047   14.7533   19.2790 C   0  0  0  0  0  0
  -44.4080   13.9490   19.7973 C   0  0  0  0  0  0
  -44.4089   13.7305   21.1786 C   0  0  0  0  0  0
  -43.4488   14.2915   22.0169 C   0  0  0  0  0  0
  -42.4631   15.0791   21.4933 C   0  0  0  0  0  0
  -45.6486   12.6742   21.9003 Cl  0  0  0  0  0  0
  -44.1433   18.8770   15.8058 C   0  0  0  0  0  0
  -39.8783   19.6316   21.1576 H   0  0  0  0  0  0
  -36.2325   17.6081   32.4760 H   0  0  0  0  0  0
  -37.8523   18.0704   38.7141 H   0  0  0  0  0  0
  -44.1537   16.3943   45.9063 H   0  0  0  0  0  0
  -38.1689   21.5904   35.9599 H   0  0  0  0  0  0
  1  2  1  0  0  0
  2  3  2  0  0  0
  3  4  1  0  0  0
  3 69  1  0  0  0
  4  5  1  0  0  0
  5  6  2  0  0  0
  5 11  1  0  0  0
  6  7  1  0  0  0
  6  2  1  0  0  0
  7  8  2  0  0  0
  7 62  1  0  0  0
  8  9  1  0  0  0
  9 10  1  0  0  0
  9 16  1  0  0  0
 10 11  1  0  0  0
 11 12  1  0  0  0
 12 13  2  0  0  0
 12 15  1  0  0  0
 13 14  1  0  0  0
 14 10  2  0  0  0
 16 17  1  0  0  0
 17 18  2  0  0  0
 17 19  1  0  0  0
 19 20  1  0  0  0
 19 70  1  0  0  0
 20 21  1  0  0  0
 21 22  1  0  0  0
 22 23  1  0  0  0
 23 24  1  0  0  0
 24 25  1  0  0  0
 25 26  1  0  0  0
 26 27  1  0  0  0
 27 28  1  0  0  0
 28 29  1  0  0  0
 29 30  1  0  0  0
 30 31  2  0  0  0
 30 32  1  0  0  0
 32 33  1  0  0  0
 32 71  1  0  0  0
 33 34  1  0  0  0
 33 58  1  0  0  0
 34 35  2  0  0  0
 34 36  1  0  0  0
 36 37  1  0  0  0
 37 38  1  0  0  0
 38 39  1  0  0  0
 38 57  1  0  0  0
 39 40  1  0  0  0
 40 41  1  0  0  0
 40 36  1  0  0  0
 41 42  2  0  0  0
 41 43  1  0  0  0
 43 44  1  0  0  0
 43 72  1  0  0  0
 44 45  1  0  0  0
 45 46  2  0  0  0
 46 47  1  0  0  0
 47 48  2  0  0  0
 48 49  1  0  0  0
 48 51  1  0  0  0
 49 50  2  0  0  0
 50 45  1  0  0  0
 51 52  2  0  0  0
 52 53  1  0  0  0
 52 56  1  0  0  0
 53 54  1  0  0  0
 53 73  1  0  0  0
 54 55  1  0  0  0
 55 51  1  0  0  0
 57 74  1  0  0  0
 58 59  1  0  0  0
 58 60  1  0  0  0
 58 61  1  0  0  0
 62 63  2  0  0  0
 63 64  1  0  0  0
 64 65  2  0  0  0
 65 66  1  0  0  0
 65 68  1  0  0  0
 66 67  2  0  0  0
 67 62  1  0  0  0
M  END
>  <CHROM.0>
9.61175700,-1.72897027,-137.42645386,130.53224880,-112.15118604,169.99781523

>  <CHROM.1>
21.95681238,-61.30026298,135.24245568,63.78903775,178.11076997,64.65153094
70.52265209,60.79594198,169.50823422,-179.10354507,178.11958130,-84.07886229
47.16212814,-78.56912748,-114.02112441,-42.59099849,178.63383375,-66.33433811
-27.68823810,-94.32819636,162.88475034,44.67321884,-40.17640650,17.62272872
28.74784089,1.58230293,-0.52436593,-1.61225930

>  <Name>
conf_4

>  <Rbt.Current_Directory>
/home/paula/Documents/testing/tutorial/protac_scoring/protac_mz1/protein_pose_15092

>  <Rbt.Executable>
rbdock/0.1.0

>  <Rbt.Library>
librxdock.so/0.1.0

>  <Rbt.Parameter_File>
/home/paula/Apps/install/miniconda3/envs/p4ward/share/rxdock-2013.1.1_148c5bd1-1/data/scripts/score.prm

>  <Rbt.Receptor>
cavity.prm

>  <SCORE>
97.0512

>  <SCORE.INTER>
90.1474

>  <SCORE.INTER.CONST>
1

>  <SCORE.INTER.POLAR>
-2.71904

>  <SCORE.INTER.REPUL>
0.500258

>  <SCORE.INTER.ROT>
21

>  <SCORE.INTER.VDW>
70.4908

>  <SCORE.INTER.norm>
1.30648

>  <SCORE.INTRA>
0

>  <SCORE.INTRA.DIHEDRAL>
0

>  <SCORE.INTRA.DIHEDRAL.0>
24.1935

>  <SCORE.INTRA.POLAR>
0

>  <SCORE.INTRA.POLAR.0>
0

>  <SCORE.INTRA.REPUL>
0

>  <SCORE.INTRA.REPUL.0>
0

>  <SCORE.INTRA.VDW>
0

>  <SCORE.INTRA.VDW.0>
-4.10282

>  <SCORE.INTRA.norm>
0

>  <SCORE.RESTR>
0.550954

>  <SCORE.RESTR.CAVITY>
0.550954

>  <SCORE.RESTR.norm>
0.00798484

>  <SCORE.SYSTEM>
6.35284

>  <SCORE.SYSTEM.CONST>
0

>  <SCORE.SYSTEM.DIHEDRAL>
15.6868

>  <SCORE.SYSTEM.POLAR>
-4.45095

>  <SCORE.SYSTEM.VDW>
13.6426

>  <SCORE.SYSTEM.norm>
0.0920701

>  <SCORE.heavy>
69

>  <SCORE.norm>
1.40654

$$$$
